<?xml version="1.0" encoding="UTF-8"?>

<!-- generated on 2022-05-30 15:02:38 by Eclipse SUMO netedit Version 1.13.0 -->

<routes xmlns:xsi="http://www.w3.org/2001/XMLSchema-instance" xsi:noNamespaceSchemaLocation="http://sumo.dlr.de/xsd/routes_file.xsd">
    <!-- Vehicles, persons and containers (sorted by depart) -->

    <!-- 车辆类型定义 -->
    <vType id="sedan" vClass="taxi" length="4.0" minGap="2.0" speedFactor="1.4"  maxSpeed="12" actionStepLength="1" color="58,115,254" laneChangeModel="SL2015" lcStrategic="-1" />
    <vType id="MPV" vClass="vip" length="5.0" minGap="2.0" speedFactor="1.3" maxSpeed="12" actionStepLength="1" color="68,0,17" laneChangeModel="SL2015" lcStrategic="-1" />      
    <vType id="truck" vClass="truck" length="7.0" minGap="2.0" speedFactor="1.2" maxSpeed="12" actionStepLength="1" color="238,0,204" laneChangeModel="SL2015" lcStrategic="-1"/>

    <!-- 车辆可行使路线定义 -->
    <!-- 西边驶入车辆路线 -->
    <route id="WR0" color="1,1,0" edges="E0 -E3"/>
    <route id="WS0" color="1,1,1" edges="E0 -E2" />
    <route id="WS1" color="1,1,1" edges="E0 -E2" />
    <route id="WS2" color="1,1,1" edges="E0 -E2" />
    <route id="WL2" color="1,1,1" edges="E0 -E1" />
    <!-- 北边驶入车辆路线 -->
    <route id="NR0" color="1,1,0" edges="E1 -E0"/>
    <route id="NS0" color="1,1,1" edges="E1 -E3" />
    <route id="NS1" color="1,1,1" edges="E1 -E3" />
    <route id="NS2" color="1,1,1" edges="E1 -E3" />
    <route id="NL2" color="1,1,1" edges="E1 -E2" />
    <!-- 东边驶入车辆路线 -->
    <route id="ER0" color="1,1,0" edges="E2 -E1"/>
    <route id="ES0" color="1,1,1" edges="E2 -E0" />
    <route id="ES1" color="1,1,1" edges="E2 -E0" />
    <route id="ES2" color="1,1,1" edges="E2 -E0" />
    <route id="EL2" color="blue" edges="E2 -E3" />
    <!-- 南边驶入车辆路线 -->
    <route id="SR0" color="1,1,0" edges="E3 -E2"/>
    <route id="SS0" color="1,1,1" edges="E3 -E1" />
    <route id="SS1" color="1,1,1" edges="E3 -E1" />
    <route id="SS2" color="1,1,1" edges="E3 -E1" />
    <route id="SL2" color="1,1,1" edges="E3 -E0" />

    <!-- 车辆具体行驶路线定义 -->
    <!-- 这里总共 30 辆车 -->
    <!-- departPos 中的值是从道路起始点开始计算，而不是道路终止点开始计算，并且是以车头为点 -->

    <!-- platoon 0 -->
    <vehicle id="0" type="sedan" route="EL2" depart="1" departPos="70" departLane="2" arrivalLane="2" />
    <vehicle id="1" type="sedan" route="EL2" depart="1" departPos="56" departLane="2" arrivalLane="2" />
    <vehicle id="2" type="truck" route="EL2" depart="1" departPos="42" departLane="2" arrivalLane="2" />
    <vehicle id="3" type="MPV" route="EL2" depart="1" departPos="25" departLane="2"  arrivalLane="2" />
    <vehicle id="4" type="MPV" route="EL2" depart="1" departPos="10" departLane="2"  arrivalLane="2" />

    <!-- platoon 1 -->
    <vehicle id="5" type="sedan" route="WS1" depart="1" departPos="70" departLane="1" arrivalLane="1" />
    <vehicle id="6" type="MPV" route="WS1" depart="1" departPos="56" departLane="1" arrivalLane="1" />
    <vehicle id="7" type="sedan" route="WS1" depart="1" departPos="41" departLane="1" arrivalLane="1" />
    
    <!-- platoon 2 -->
    <vehicle id="8" type="truck" route="NL2" depart="2" departPos="67" departLane="2" arrivalLane="2" />
    <vehicle id="9" type="sedan" route="NL2" depart="2" departPos="50" departLane="2" arrivalLane="2" />
    
    <!-- platoon 3 -->
    <vehicle id="10" type="sedan" route="SS0" depart="4" departPos="70" departLane="0" arrivalLane="0" />
    <vehicle id="11" type="truck" route="SS0" depart="4" departPos="56" departLane="0" arrivalLane="0" />
    <vehicle id="12" type="MPV" route="SS0" depart="4" departPos="39" departLane="0" arrivalLane="0" />
    <vehicle id="13" type="sedan" route="SS0" depart="4" departPos="24" departLane="0" arrivalLane="0" />
    <vehicle id="14" type="MPV" route="SS0" depart="4" departPos="10" departLane="0" arrivalLane="0" />
    
    <!-- platoon 4 -->
    <vehicle id="15" type="sedan" route="NS0" depart="4" departPos="70" departLane="0" arrivalLane="0" />
    <vehicle id="16" type="sedan" route="NS0" depart="4" departPos="56" departLane="0" arrivalLane="0" />
    <vehicle id="17" type="MPV" route="NS0" depart="4" departPos="42" departLane="0" arrivalLane="0" />
    <vehicle id="18" type="truck" route="NS0" depart="4" departPos="27" departLane="0" arrivalLane="0" />
    <vehicle id="19" type="MPV" route="NS0" depart="4" departPos="10" departLane="0" arrivalLane="0" />
    
    <!-- platoon 5 -->
    <vehicle id="20" type="MPV" route="ES2" depart="9" departPos="70" departLane="2" arrivalLane="2" />
    <vehicle id="21" type="truck" route="ES2" depart="9" departPos="55" departLane="2" arrivalLane="2" />
    <vehicle id="22" type="sedan" route="ES2" depart="9" departPos="38" departLane="2" arrivalLane="2" />
    
    <!-- platoon 6 -->
    <vehicle id="23" type="truck" route="SS2" depart="9" departPos="53" departLane="2" arrivalLane="2" />
    <vehicle id="24" type="sedan" route="SS2" depart="9" departPos="36" departLane="2" arrivalLane="2" />
    <vehicle id="25" type="truck" route="SS2" depart="9" departPos="22" departLane="2" arrivalLane="2" />
    <vehicle id="26" type="sedan" route="SS2" depart="9" departPos="5" departLane="2" arrivalLane="2" />
    
    <!-- platoon 7 -->
    <vehicle id="27" type="sedan" route="SS1" depart="9" departPos="65" departLane="1" arrivalLane="1" />

    <!-- platoon 8 -->
    <vehicle id="28" type="sedan" route="NS1" departPos="65" depart="15" departLane="1" arrivalLane="1" />
    <vehicle id="29" type="sedan" route="NS1" departPos="51" depart="15" departLane="1" arrivalLane="1" />
    <vehicle id="30" type="sedan" route="NS1" departPos="37" depart="15" departLane="1" arrivalLane="1" />

    <!-- platoon 9 -->
    <vehicle id="31" type="truck" route="WL2" depart="15" departPos="59" departLane="2" arrivalLane="2" />
    <vehicle id="32" type="sedan" route="WL2" depart="15" departPos="42" departLane="2" arrivalLane="2" />
    <vehicle id="33" type="MPV" route="WL2" depart="15" departPos="28" departLane="2" arrivalLane="2" />

    <!-- platoon 10 -->
    <vehicle id="34" type="sedan" route="NR0" depart="17" departPos="70" departLane="0" arrivalLane="0" />
    <vehicle id="35" type="sedan" route="NR0" depart="17" departPos="56" departLane="0" arrivalLane="0" />
    <vehicle id="36" type="truck" route="NR0" depart="17" departPos="42" departLane="0" arrivalLane="0" />
    <vehicle id="37" type="truck" route="NR0" depart="17" departPos="25" departLane="0" arrivalLane="0" />

    <!-- platoon 11 -->
    <vehicle id="38" type="sedan" route="ER0" depart="23" departPos="88" departLane="0" arrivalLane="0" />
    <vehicle id="39" type="truck" route="ER0" depart="23" departPos="74" departLane="0" arrivalLane="0" />
    <vehicle id="40" type="truck" route="ER0" depart="23" departPos="57" departLane="0" arrivalLane="0" />
    <vehicle id="41" type="MPV" route="ER0" depart="23" departPos="39" departLane="0" arrivalLane="0" />
    <vehicle id="42" type="sedan" route="ER0" depart="23" departPos="24" departLane="0" arrivalLane="0" />
    <vehicle id="43" type="sedan" route="ER0" depart="23" departPos="10" departLane="0" arrivalLane="0" />

    <!-- platoon 12 -->
    <vehicle id="44" type="truck" route="SR0" depart="23" departPos="70" departLane="0" arrivalLane="0" />
    <vehicle id="45" type="truck" route="SR0" depart="23" departPos="53" departLane="0" arrivalLane="0" />
    <vehicle id="46" type="MPV" route="SR0" depart="23" departPos="36" departLane="0" arrivalLane="0" />
    <vehicle id="47" type="MPV" route="SR0" depart="23" departPos="21" departLane="0" arrivalLane="0" />
    <vehicle id="48" type="MPV" route="SR0" depart="23" departPos="6" departLane="0" arrivalLane="0" />


</routes>
