<?xml version="1.0" encoding="UTF-8"?>

<!-- generated on 2022-05-30 15:02:38 by Eclipse SUMO netedit Version 1.13.0 -->

<routes xmlns:xsi="http://www.w3.org/2001/XMLSchema-instance" xsi:noNamespaceSchemaLocation="http://sumo.dlr.de/xsd/routes_file.xsd">
    <!-- Vehicles, persons and containers (sorted by depart) -->

    <!-- 车辆类型定义 -->
    <vType id="sedan" vClass="taxi" length="4.0" minGap="2.0" speedFactor="1.4"  maxSpeed="20" accel="2.5" decel="2.0"  actionStepLength="1" color="58,115,254" laneChangeModel="SL2015" lcStrategic="-1" carFollowModel="CACC" />
    <vType id="MPV" vClass="vip" length="5.0" minGap="2.0" speedFactor="1.3" maxSpeed="20" accel="2.5" decel="2.0" actionStepLength="1" color="68,0,17" laneChangeModel="SL2015" lcStrategic="-1" carFollowModel="CACC" />      
    <vType id="truck" vClass="truck" length="7.0" minGap="2.0" speedFactor="1.2" maxSpeed="20" accel="2.5" decel="2.0" actionStepLength="1" color="238,0,204" laneChangeModel="SL2015" lcStrategic="-1" carFollowModel="CACC"/>

    <!-- 车辆可行使路线定义 -->
    <!-- 西边驶入车辆路线 -->
    <route id="WR0" color="1,1,0" edges="E0 -E3"/>
    <route id="WS0" color="1,1,1" edges="E0 -E2" />
    <route id="WS1" color="1,1,1" edges="E0 -E2" />
    <route id="WS2" color="1,1,1" edges="E0 -E2" />
    <route id="WL2" color="1,1,1" edges="E0 -E1" />
    <!-- 北边驶入车辆路线 -->
    <route id="NR0" color="1,1,0" edges="E1 -E0"/>
    <route id="NS0" color="1,1,1" edges="E1 -E3" />
    <route id="NS1" color="1,1,1" edges="E1 -E3" />
    <route id="NS2" color="1,1,1" edges="E1 -E3" />
    <route id="NL2" color="1,1,1" edges="E1 -E2" />
    <!-- 东边驶入车辆路线 -->
    <route id="ER0" color="1,1,0" edges="E2 -E1"/>
    <route id="ES0" color="1,1,1" edges="E2 -E0" />
    <route id="ES1" color="1,1,1" edges="E2 -E0" />
    <route id="ES2" color="1,1,1" edges="E2 -E0" />
    <route id="EL2" color="blue" edges="E2 -E3" />
    <!-- 南边驶入车辆路线 -->
    <route id="SR0" color="1,1,0" edges="E3 -E2"/>
    <route id="SS0" color="1,1,1" edges="E3 -E1" />
    <route id="SS1" color="1,1,1" edges="E3 -E1" />
    <route id="SS2" color="1,1,1" edges="E3 -E1" />
    <route id="SL2" color="1,1,1" edges="E3 -E0" />

    <!-- 车辆具体行驶路线定义 -->
    <!-- 这里总共 30 辆车 -->
    <!-- departPos 中的值是从道路起始点开始计算，而不是道路终止点开始计算，并且是以车头为点 -->
    <!-- 需要按照出现的时间排序 -->


    <!-- platoon 8 -->
    <!-- <vehicle id="28" type="sedan" route="NS1" departPos="38" depart="15" departLane="1" arrivalLane="1" />
    <vehicle id="29" type="sedan" route="NS1" departPos="24" depart="15" departLane="1" arrivalLane="1" />
    <vehicle id="30" type="sedan" route="NS1" departPos="10" depart="15" departLane="1" arrivalLane="1" /> -->

    <!-- platoon 9 -->
    <!-- <vehicle id="31" type="truck" route="WL2" depart="15" departPos="41" departLane="2" arrivalLane="2" />
    <vehicle id="32" type="sedan" route="WL2" depart="15" departPos="24" departLane="2" arrivalLane="2" />
    <vehicle id="33" type="MPV" route="WL2" depart="15" departPos="10" departLane="2" arrivalLane="2" /> -->

    <!-- platoon 25 -->
    <!-- <vehicle id="99" type="sedan" route="NL2" depart="18" departPos="85" departLane="2" arrivalLane="2" />
    <vehicle id="100" type="MPV" route="NL2" depart="18" departPos="71" departLane="2" arrivalLane="2" />
    <vehicle id="101" type="truck" route="NL2" depart="18" departPos="56" departLane="2" arrivalLane="2" />
    <vehicle id="102" type="sedan" route="NL2" depart="18" departPos="39" departLane="2" arrivalLane="2" />
    <vehicle id="103" type="MPV" route="NL2" depart="18" departPos="25" departLane="2" arrivalLane="2" />
    <vehicle id="104" type="sedan" route="NL2" depart="18" departPos="10" departLane="2" arrivalLane="2" /> -->

    <!-- platoon 26 -->
    <vehicle id="105" type="MPV" route="SL2" depart="20" departPos="56" departLane="2" arrivalLane="2" />
    <vehicle id="106" type="sedan" route="SL2" depart="20" departPos="41" departLane="2" arrivalLane="2" />
    <vehicle id="107" type="truck" route="SL2" depart="20" departPos="27" departLane="2" arrivalLane="2" />
    <vehicle id="108" type="sedan" route="SL2" depart="20" departPos="10" departLane="2" arrivalLane="2" />

    <!-- platoon 27 -->
    <vehicle id="109" type="truck" route="WS1" depart="20" departPos="72" departLane="1" arrivalLane="1" />
    <vehicle id="110" type="MPV" route="WS1" depart="20" departPos="55" departLane="1" arrivalLane="1" />
    <vehicle id="111" type="MPV" route="WS1" depart="20" departPos="40" departLane="1" arrivalLane="1" />
    <vehicle id="112" type="MPV" route="WS1" depart="20" departPos="25" departLane="1" arrivalLane="1" />
    <vehicle id="113" type="MPV" route="WS1" depart="20" departPos="10" departLane="1" arrivalLane="1" />

    <!-- platoon 10 -->
    <vehicle id="34" type="sedan" route="NR0" depart="21" departPos="55" departLane="0" arrivalLane="0" />
    <vehicle id="35" type="sedan" route="NR0" depart="21" departPos="41" departLane="0" arrivalLane="0" />
    <vehicle id="36" type="truck" route="NR0" depart="21" departPos="27" departLane="0" arrivalLane="0" />
    <vehicle id="37" type="truck" route="NR0" depart="21" departPos="10" departLane="0" arrivalLane="0" />

    <!-- platoon 12 -->
    <vehicle id="44" type="truck" route="SR0" depart="23" departPos="74" departLane="0" arrivalLane="0" />
    <vehicle id="45" type="truck" route="SR0" depart="23" departPos="57" departLane="0" arrivalLane="0" />
    <vehicle id="46" type="MPV" route="SR0" depart="23" departPos="40" departLane="0" arrivalLane="0" />
    <vehicle id="47" type="MPV" route="SR0" depart="23" departPos="25" departLane="0" arrivalLane="0" />
    <vehicle id="48" type="MPV" route="SR0" depart="23" departPos="10" departLane="0" arrivalLane="0" />

    <!-- platoon 11 -->
    <vehicle id="38" type="sedan" route="EL2" depart="30" departPos="88" departLane="2" arrivalLane="2" />
    <vehicle id="39" type="truck" route="EL2" depart="30" departPos="74" departLane="2" arrivalLane="2" />
    <vehicle id="40" type="truck" route="EL2" depart="30" departPos="57" departLane="2" arrivalLane="2" />
    <vehicle id="41" type="MPV" route="EL2" depart="30" departPos="39" departLane="2" arrivalLane="2" />
    <vehicle id="42" type="sedan" route="EL2" depart="30" departPos="24" departLane="2" arrivalLane="2" />
    <vehicle id="43" type="sedan" route="EL2" depart="30" departPos="10" departLane="2" arrivalLane="2" />

    <!-- platoon 28 -->
    <vehicle id="114" type="MPV" route="ER0" depart="30" departPos="57" departLane="0" arrivalLane="0" />
    <vehicle id="115" type="truck" route="ER0" depart="30" departPos="42" departLane="0" arrivalLane="0" />
    <vehicle id="116" type="MPV" route="ER0" depart="30" departPos="25" departLane="0" arrivalLane="0" />
    <vehicle id="117" type="sedan" route="ER0" depart="30" departPos="10" departLane="0" arrivalLane="0" />

    <!-- platoon 29 -->
    <vehicle id="118" type="truck" route="NS2" depart="30" departPos="71" departLane="2" arrivalLane="2" />
    <vehicle id="119" type="MPV" route="NS2" depart="30" departPos="54" departLane="2" arrivalLane="2" />
    <vehicle id="120" type="sedan" route="NS2" depart="30" departPos="39" departLane="2" arrivalLane="2" />
    <vehicle id="121" type="MPV" route="NS2" depart="30" departPos="25" departLane="2" arrivalLane="2" />
    <vehicle id="122" type="MPV" route="NS2" depart="30" departPos="10" departLane="2" arrivalLane="2" />



</routes>